[General]
network = LargeCarNetwork
sim-time-limit = 120s

# Converted from CoRE4INET large_car_network project
# Formula: productionInterval = intervalInaccurracy / intervalFrames
# This gives the period for a single frame in INET

#############################################
# General Configuration
#############################################

# Disable master clock (not needed for basic AVB)
*.masterClock.typename = ""

# Disable statistics collection for faster simulation
*.collectStatistics = false
*.displayStatistics = false
**.collectStatistics = false
**.displayStatistics = false

# Ethernet link bitrate
*.*.eth[*].bitrate = 1Gbps

# Disable local multicast loop
**.udp.defaultMulticastLoop = false

#############################################
# TSN/AVB Stream Configuration
#############################################

# Enable stream coding for all devices
*.*.hasOutgoingStreams = true
*.*.hasIncomingStreams = true

# Enable egress traffic shaping on switches (Credit Based Shaper for AVB)
*.Switch*.hasEgressTrafficShaping = true
*.FrontLeftSwitch.hasEgressTrafficShaping = true
*.FrontRightSwitch.hasEgressTrafficShaping = true
*.RearSwitch.hasEgressTrafficShaping = true
*.EndSwitch*.hasEgressTrafficShaping = true

# Disable C-Tag forwarding on switches
*.Switch*.bridging.directionReverser.reverser.excludeEncapsulationProtocols = ["ieee8021qctag"]
*.FrontLeftSwitch.bridging.directionReverser.reverser.excludeEncapsulationProtocols = ["ieee8021qctag"]
*.FrontRightSwitch.bridging.directionReverser.reverser.excludeEncapsulationProtocols = ["ieee8021qctag"]
*.RearSwitch.bridging.directionReverser.reverser.excludeEncapsulationProtocols = ["ieee8021qctag"]
*.EndSwitch*.bridging.directionReverser.reverser.excludeEncapsulationProtocols = ["ieee8021qctag"]

#############################################
# Traffic Shaping Configuration (Credit Based Shaper for AVB Class A)
#############################################

# Configure CBS on all switch ports
# Using 1 traffic class (Class A with PCP 5)
# idleSlope = 75% of link rate for AVB Class A (750Mbps for 1Gbps link)

*.Switch*.eth[*].macLayer.queue.numTrafficClasses = 1
*.Switch*.eth[*].macLayer.queue.*[0].display-name = "Class A"
*.Switch*.eth[*].macLayer.queue.transmissionSelectionAlgorithm[0].typename = "Ieee8021qCreditBasedShaper"
*.Switch*.eth[*].macLayer.queue.transmissionSelectionAlgorithm[0].idleSlope = 750Mbps

*.FrontLeftSwitch.eth[*].macLayer.queue.numTrafficClasses = 1
*.FrontLeftSwitch.eth[*].macLayer.queue.*[0].display-name = "Class A"
*.FrontLeftSwitch.eth[*].macLayer.queue.transmissionSelectionAlgorithm[0].typename = "Ieee8021qCreditBasedShaper"
*.FrontLeftSwitch.eth[*].macLayer.queue.transmissionSelectionAlgorithm[0].idleSlope = 750Mbps

*.FrontRightSwitch.eth[*].macLayer.queue.numTrafficClasses = 1
*.FrontRightSwitch.eth[*].macLayer.queue.*[0].display-name = "Class A"
*.FrontRightSwitch.eth[*].macLayer.queue.transmissionSelectionAlgorithm[0].typename = "Ieee8021qCreditBasedShaper"
*.FrontRightSwitch.eth[*].macLayer.queue.transmissionSelectionAlgorithm[0].idleSlope = 750Mbps

*.RearSwitch.eth[*].macLayer.queue.numTrafficClasses = 1
*.RearSwitch.eth[*].macLayer.queue.*[0].display-name = "Class A"
*.RearSwitch.eth[*].macLayer.queue.transmissionSelectionAlgorithm[0].typename = "Ieee8021qCreditBasedShaper"
*.RearSwitch.eth[*].macLayer.queue.transmissionSelectionAlgorithm[0].idleSlope = 750Mbps

*.EndSwitch1.eth[*].macLayer.queue.numTrafficClasses = 1
*.EndSwitch1.eth[*].macLayer.queue.*[0].display-name = "Class A"
*.EndSwitch1.eth[*].macLayer.queue.transmissionSelectionAlgorithm[0].typename = "Ieee8021qCreditBasedShaper"
*.EndSwitch1.eth[*].macLayer.queue.transmissionSelectionAlgorithm[0].idleSlope = 750Mbps

*.EndSwitch2.eth[*].macLayer.queue.numTrafficClasses = 1
*.EndSwitch2.eth[*].macLayer.queue.*[0].display-name = "Class A"
*.EndSwitch2.eth[*].macLayer.queue.transmissionSelectionAlgorithm[0].typename = "Ieee8021qCreditBasedShaper"
*.EndSwitch2.eth[*].macLayer.queue.transmissionSelectionAlgorithm[0].idleSlope = 750Mbps

#############################################
# CRC/FCS Configuration
#############################################
**.crcMode = "computed"
**.fcsMode = "computed"

#############################################
# Application Configuration
#############################################
# Formula: productionInterval = intervalInaccurracy / intervalFrames
#
# S1:  Lidar → VCC1      (1500B, 100us/1)  → productionInterval=100us
# S2:  Cam1 → VCC1       (490B, 100us/1)   → productionInterval=100us
# S3:  Radar1 → VCC1     (42B, 1000us/1)   → productionInterval=1ms
# S4:  Cam2 → VCC1       (490B, 100us/1)   → productionInterval=100us
# S5:  Radar2 → VCC1     (42B, 1000us/1)   → productionInterval=1ms
# S6:  Cam3 → VCC1       (490B, 100us/1)   → productionInterval=100us
# S7:  Cam4 → VCC1       (490B, 100us/1)   → productionInterval=100us
# S8:  VCC3 → Audio1     (234B, 100us/1)   → productionInterval=100us
# S9:  VCC3 → Audio2     (234B, 100us/1)   → productionInterval=100us
# S10: VCC3 → Audio3     (234B, 100us/1)   → productionInterval=100us
# S11: Video → VCC3      (1500B, 100us/1)  → productionInterval=100us
# S12: VCC2 → WinAct1    (42B, 100us/1)    → productionInterval=100us
# S13: VCC2 → WinAct2    (42B, 100us/1)    → productionInterval=100us
# S14: VCC2 → WinAct3    (42B, 100us/1)    → productionInterval=100us
# S15: VCC1 → BrakeAct1  (42B, 100us/1)    → productionInterval=100us
# S16: VCC1 → BrakeAct2  (42B, 100us/1)    → productionInterval=100us
# S17: VCC1 → BrakeAct3  (42B, 100us/1)    → productionInterval=100us

#############################################
# Lidar Application (Talker: S1)
#############################################
*.Lidar.numApps = 1

*.Lidar.app[0].typename = "UdpSourceApp"
*.Lidar.app[0].display-name = "S1 Talker: Lidar->VCC1"
*.Lidar.app[0].source.packetNameFormat = "Lidar->VCC1:S1-%c"
*.Lidar.app[0].source.packetLength = 1500B
*.Lidar.app[0].source.productionInterval = 100us
*.Lidar.app[0].io.destAddress = "VCC1"
*.Lidar.app[0].io.destPort = 1001

#############################################
# Cam1 Application (Talker: S2)
#############################################
*.Cam1.numApps = 1

*.Cam1.app[0].typename = "UdpSourceApp"
*.Cam1.app[0].display-name = "S2 Talker: Cam1->VCC1"
*.Cam1.app[0].source.packetNameFormat = "Cam1->VCC1:S2-%c"
*.Cam1.app[0].source.packetLength = 490B
*.Cam1.app[0].source.productionInterval = 100us
*.Cam1.app[0].io.destAddress = "VCC1"
*.Cam1.app[0].io.destPort = 1002

#############################################
# Radar1 Application (Talker: S3)
#############################################
*.Radar1.numApps = 1

*.Radar1.app[0].typename = "UdpSourceApp"
*.Radar1.app[0].display-name = "S3 Talker: Radar1->VCC1"
*.Radar1.app[0].source.packetNameFormat = "Radar1->VCC1:S3-%c"
*.Radar1.app[0].source.packetLength = 42B
*.Radar1.app[0].source.productionInterval = 1ms
*.Radar1.app[0].io.destAddress = "VCC1"
*.Radar1.app[0].io.destPort = 1003

#############################################
# Cam2 Application (Talker: S4)
#############################################
*.Cam2.numApps = 1

*.Cam2.app[0].typename = "UdpSourceApp"
*.Cam2.app[0].display-name = "S4 Talker: Cam2->VCC1"
*.Cam2.app[0].source.packetNameFormat = "Cam2->VCC1:S4-%c"
*.Cam2.app[0].source.packetLength = 490B
*.Cam2.app[0].source.productionInterval = 100us
*.Cam2.app[0].io.destAddress = "VCC1"
*.Cam2.app[0].io.destPort = 1004

#############################################
# Radar2 Application (Talker: S5)
#############################################
*.Radar2.numApps = 1

*.Radar2.app[0].typename = "UdpSourceApp"
*.Radar2.app[0].display-name = "S5 Talker: Radar2->VCC1"
*.Radar2.app[0].source.packetNameFormat = "Radar2->VCC1:S5-%c"
*.Radar2.app[0].source.packetLength = 42B
*.Radar2.app[0].source.productionInterval = 1ms
*.Radar2.app[0].io.destAddress = "VCC1"
*.Radar2.app[0].io.destPort = 1005

#############################################
# Cam3 Application (Talker: S6)
#############################################
*.Cam3.numApps = 1

*.Cam3.app[0].typename = "UdpSourceApp"
*.Cam3.app[0].display-name = "S6 Talker: Cam3->VCC1"
*.Cam3.app[0].source.packetNameFormat = "Cam3->VCC1:S6-%c"
*.Cam3.app[0].source.packetLength = 490B
*.Cam3.app[0].source.productionInterval = 100us
*.Cam3.app[0].io.destAddress = "VCC1"
*.Cam3.app[0].io.destPort = 1006

#############################################
# Cam4 Application (Talker: S7)
#############################################
*.Cam4.numApps = 1

*.Cam4.app[0].typename = "UdpSourceApp"
*.Cam4.app[0].display-name = "S7 Talker: Cam4->VCC1"
*.Cam4.app[0].source.packetNameFormat = "Cam4->VCC1:S7-%c"
*.Cam4.app[0].source.packetLength = 490B
*.Cam4.app[0].source.productionInterval = 100us
*.Cam4.app[0].io.destAddress = "VCC1"
*.Cam4.app[0].io.destPort = 1007

#############################################
# Video Application (Talker: S11)
#############################################
*.Video.numApps = 1

*.Video.app[0].typename = "UdpSourceApp"
*.Video.app[0].display-name = "S11 Talker: Video->VCC3"
*.Video.app[0].source.packetNameFormat = "Video->VCC3:S11-%c"
*.Video.app[0].source.packetLength = 1500B
*.Video.app[0].source.productionInterval = 100us
*.Video.app[0].io.destAddress = "VCC3"
*.Video.app[0].io.destPort = 1011

#############################################
# VCC1 Applications (Talkers: S15-S17, Listeners: S1-S7)
#############################################
*.VCC1.numApps = 10

# Talker: S15 -> BrakeAct1
*.VCC1.app[0].typename = "UdpSourceApp"
*.VCC1.app[0].display-name = "S15 Talker: VCC1->BrakeAct1"
*.VCC1.app[0].source.packetNameFormat = "VCC1->BrakeAct1:S15-%c"
*.VCC1.app[0].source.packetLength = 42B
*.VCC1.app[0].source.productionInterval = 100us
*.VCC1.app[0].io.destAddress = "BrakeAct1"
*.VCC1.app[0].io.destPort = 1015

# Talker: S16 -> BrakeAct2
*.VCC1.app[1].typename = "UdpSourceApp"
*.VCC1.app[1].display-name = "S16 Talker: VCC1->BrakeAct2"
*.VCC1.app[1].source.packetNameFormat = "VCC1->BrakeAct2:S16-%c"
*.VCC1.app[1].source.packetLength = 42B
*.VCC1.app[1].source.productionInterval = 100us
*.VCC1.app[1].io.destAddress = "BrakeAct2"
*.VCC1.app[1].io.destPort = 1016

# Talker: S17 -> BrakeAct3
*.VCC1.app[2].typename = "UdpSourceApp"
*.VCC1.app[2].display-name = "S17 Talker: VCC1->BrakeAct3"
*.VCC1.app[2].source.packetNameFormat = "VCC1->BrakeAct3:S17-%c"
*.VCC1.app[2].source.packetLength = 42B
*.VCC1.app[2].source.productionInterval = 100us
*.VCC1.app[2].io.destAddress = "BrakeAct3"
*.VCC1.app[2].io.destPort = 1017

# Listener: S1 (from Lidar)
*.VCC1.app[3].typename = "UdpSinkApp"
*.VCC1.app[3].display-name = "S1 Listener: Lidar->VCC1"
*.VCC1.app[3].io.localPort = 1001

# Listener: S2 (from Cam1)
*.VCC1.app[4].typename = "UdpSinkApp"
*.VCC1.app[4].display-name = "S2 Listener: Cam1->VCC1"
*.VCC1.app[4].io.localPort = 1002

# Listener: S3 (from Radar1)
*.VCC1.app[5].typename = "UdpSinkApp"
*.VCC1.app[5].display-name = "S3 Listener: Radar1->VCC1"
*.VCC1.app[5].io.localPort = 1003

# Listener: S4 (from Cam2)
*.VCC1.app[6].typename = "UdpSinkApp"
*.VCC1.app[6].display-name = "S4 Listener: Cam2->VCC1"
*.VCC1.app[6].io.localPort = 1004

# Listener: S5 (from Radar2)
*.VCC1.app[7].typename = "UdpSinkApp"
*.VCC1.app[7].display-name = "S5 Listener: Radar2->VCC1"
*.VCC1.app[7].io.localPort = 1005

# Listener: S6 (from Cam3)
*.VCC1.app[8].typename = "UdpSinkApp"
*.VCC1.app[8].display-name = "S6 Listener: Cam3->VCC1"
*.VCC1.app[8].io.localPort = 1006

# Listener: S7 (from Cam4)
*.VCC1.app[9].typename = "UdpSinkApp"
*.VCC1.app[9].display-name = "S7 Listener: Cam4->VCC1"
*.VCC1.app[9].io.localPort = 1007

#############################################
# VCC2 Applications (Talkers: S12-S14)
#############################################
*.VCC2.numApps = 3

# Talker: S12 -> WinAct1
*.VCC2.app[0].typename = "UdpSourceApp"
*.VCC2.app[0].display-name = "S12 Talker: VCC2->WinAct1"
*.VCC2.app[0].source.packetNameFormat = "VCC2->WinAct1:S12-%c"
*.VCC2.app[0].source.packetLength = 42B
*.VCC2.app[0].source.productionInterval = 100us
*.VCC2.app[0].io.destAddress = "WinAct1"
*.VCC2.app[0].io.destPort = 1012

# Talker: S13 -> WinAct2
*.VCC2.app[1].typename = "UdpSourceApp"
*.VCC2.app[1].display-name = "S13 Talker: VCC2->WinAct2"
*.VCC2.app[1].source.packetNameFormat = "VCC2->WinAct2:S13-%c"
*.VCC2.app[1].source.packetLength = 42B
*.VCC2.app[1].source.productionInterval = 100us
*.VCC2.app[1].io.destAddress = "WinAct2"
*.VCC2.app[1].io.destPort = 1013

# Talker: S14 -> WinAct3
*.VCC2.app[2].typename = "UdpSourceApp"
*.VCC2.app[2].display-name = "S14 Talker: VCC2->WinAct3"
*.VCC2.app[2].source.packetNameFormat = "VCC2->WinAct3:S14-%c"
*.VCC2.app[2].source.packetLength = 42B
*.VCC2.app[2].source.productionInterval = 100us
*.VCC2.app[2].io.destAddress = "WinAct3"
*.VCC2.app[2].io.destPort = 1014

#############################################
# VCC3 Applications (Talkers: S8-S10, Listener: S11)
#############################################
*.VCC3.numApps = 4

# Talker: S8 -> Audio1
*.VCC3.app[0].typename = "UdpSourceApp"
*.VCC3.app[0].display-name = "S8 Talker: VCC3->Audio1"
*.VCC3.app[0].source.packetNameFormat = "VCC3->Audio1:S8-%c"
*.VCC3.app[0].source.packetLength = 234B
*.VCC3.app[0].source.productionInterval = 100us
*.VCC3.app[0].io.destAddress = "Audio1"
*.VCC3.app[0].io.destPort = 1008

# Talker: S9 -> Audio2
*.VCC3.app[1].typename = "UdpSourceApp"
*.VCC3.app[1].display-name = "S9 Talker: VCC3->Audio2"
*.VCC3.app[1].source.packetNameFormat = "VCC3->Audio2:S9-%c"
*.VCC3.app[1].source.packetLength = 234B
*.VCC3.app[1].source.productionInterval = 100us
*.VCC3.app[1].io.destAddress = "Audio2"
*.VCC3.app[1].io.destPort = 1009

# Talker: S10 -> Audio3
*.VCC3.app[2].typename = "UdpSourceApp"
*.VCC3.app[2].display-name = "S10 Talker: VCC3->Audio3"
*.VCC3.app[2].source.packetNameFormat = "VCC3->Audio3:S10-%c"
*.VCC3.app[2].source.packetLength = 234B
*.VCC3.app[2].source.productionInterval = 100us
*.VCC3.app[2].io.destAddress = "Audio3"
*.VCC3.app[2].io.destPort = 1010

# Listener: S11 (from Video)
*.VCC3.app[3].typename = "UdpSinkApp"
*.VCC3.app[3].display-name = "S11 Listener: Video->VCC3"
*.VCC3.app[3].io.localPort = 1011

#############################################
# Audio Applications (Listeners)
#############################################
# Audio1 (Listener: S8)
*.Audio1.numApps = 1
*.Audio1.app[0].typename = "UdpSinkApp"
*.Audio1.app[0].display-name = "S8 Listener: VCC3->Audio1"
*.Audio1.app[0].io.localPort = 1008

# Audio2 (Listener: S9)
*.Audio2.numApps = 1
*.Audio2.app[0].typename = "UdpSinkApp"
*.Audio2.app[0].display-name = "S9 Listener: VCC3->Audio2"
*.Audio2.app[0].io.localPort = 1009

# Audio3 (Listener: S10)
*.Audio3.numApps = 1
*.Audio3.app[0].typename = "UdpSinkApp"
*.Audio3.app[0].display-name = "S10 Listener: VCC3->Audio3"
*.Audio3.app[0].io.localPort = 1010

#############################################
# Window Actuator Applications (Listeners)
#############################################
# WinAct1 (Listener: S12)
*.WinAct1.numApps = 1
*.WinAct1.app[0].typename = "UdpSinkApp"
*.WinAct1.app[0].display-name = "S12 Listener: VCC2->WinAct1"
*.WinAct1.app[0].io.localPort = 1012

# WinAct2 (Listener: S13)
*.WinAct2.numApps = 1
*.WinAct2.app[0].typename = "UdpSinkApp"
*.WinAct2.app[0].display-name = "S13 Listener: VCC2->WinAct2"
*.WinAct2.app[0].io.localPort = 1013

# WinAct3 (Listener: S14)
*.WinAct3.numApps = 1
*.WinAct3.app[0].typename = "UdpSinkApp"
*.WinAct3.app[0].display-name = "S14 Listener: VCC2->WinAct3"
*.WinAct3.app[0].io.localPort = 1014

#############################################
# Brake Actuator Applications (Listeners)
#############################################
# BrakeAct1 (Listener: S15)
*.BrakeAct1.numApps = 1
*.BrakeAct1.app[0].typename = "UdpSinkApp"
*.BrakeAct1.app[0].display-name = "S15 Listener: VCC1->BrakeAct1"
*.BrakeAct1.app[0].io.localPort = 1015

# BrakeAct2 (Listener: S16)
*.BrakeAct2.numApps = 1
*.BrakeAct2.app[0].typename = "UdpSinkApp"
*.BrakeAct2.app[0].display-name = "S16 Listener: VCC1->BrakeAct2"
*.BrakeAct2.app[0].io.localPort = 1016

# BrakeAct3 (Listener: S17)
*.BrakeAct3.numApps = 1
*.BrakeAct3.app[0].typename = "UdpSinkApp"
*.BrakeAct3.app[0].display-name = "S17 Listener: VCC1->BrakeAct3"
*.BrakeAct3.app[0].io.localPort = 1017

#############################################
# Controllers (No applications defined)
#############################################
*.FLC.numApps = 0
*.FRC.numApps = 0
*.RC.numApps = 0

#############################################
# Stream Identification Configuration
#############################################

# Lidar stream identification
*.Lidar.bridging.streamIdentifier.identifier.mapping = [{stream: "S1", packetFilter: expr(has(udp) && udp.destPort == 1001)}]
*.Lidar.bridging.streamCoder.encoder.mapping = [{stream: "S1", pcp: 5}]

# Cam1 stream identification
*.Cam1.bridging.streamIdentifier.identifier.mapping = [{stream: "S2", packetFilter: expr(has(udp) && udp.destPort == 1002)}]
*.Cam1.bridging.streamCoder.encoder.mapping = [{stream: "S2", pcp: 5}]

# Radar1 stream identification
*.Radar1.bridging.streamIdentifier.identifier.mapping = [{stream: "S3", packetFilter: expr(has(udp) && udp.destPort == 1003)}]
*.Radar1.bridging.streamCoder.encoder.mapping = [{stream: "S3", pcp: 5}]

# Cam2 stream identification
*.Cam2.bridging.streamIdentifier.identifier.mapping = [{stream: "S4", packetFilter: expr(has(udp) && udp.destPort == 1004)}]
*.Cam2.bridging.streamCoder.encoder.mapping = [{stream: "S4", pcp: 5}]

# Radar2 stream identification
*.Radar2.bridging.streamIdentifier.identifier.mapping = [{stream: "S5", packetFilter: expr(has(udp) && udp.destPort == 1005)}]
*.Radar2.bridging.streamCoder.encoder.mapping = [{stream: "S5", pcp: 5}]

# Cam3 stream identification
*.Cam3.bridging.streamIdentifier.identifier.mapping = [{stream: "S6", packetFilter: expr(has(udp) && udp.destPort == 1006)}]
*.Cam3.bridging.streamCoder.encoder.mapping = [{stream: "S6", pcp: 5}]

# Cam4 stream identification
*.Cam4.bridging.streamIdentifier.identifier.mapping = [{stream: "S7", packetFilter: expr(has(udp) && udp.destPort == 1007)}]
*.Cam4.bridging.streamCoder.encoder.mapping = [{stream: "S7", pcp: 5}]

# Video stream identification
*.Video.bridging.streamIdentifier.identifier.mapping = [{stream: "S11", packetFilter: expr(has(udp) && udp.destPort == 1011)}]
*.Video.bridging.streamCoder.encoder.mapping = [{stream: "S11", pcp: 5}]

# VCC1 stream identification
*.VCC1.bridging.streamIdentifier.identifier.mapping = [{stream: "S15", packetFilter: expr(has(udp) && udp.destPort == 1015)}, \
                                                       {stream: "S16", packetFilter: expr(has(udp) && udp.destPort == 1016)}, \
                                                       {stream: "S17", packetFilter: expr(has(udp) && udp.destPort == 1017)}]
*.VCC1.bridging.streamCoder.encoder.mapping = [{stream: "S15", pcp: 5}, \
                                               {stream: "S16", pcp: 5}, \
                                               {stream: "S17", pcp: 5}]

# VCC2 stream identification
*.VCC2.bridging.streamIdentifier.identifier.mapping = [{stream: "S12", packetFilter: expr(has(udp) && udp.destPort == 1012)}, \
                                                       {stream: "S13", packetFilter: expr(has(udp) && udp.destPort == 1013)}, \
                                                       {stream: "S14", packetFilter: expr(has(udp) && udp.destPort == 1014)}]
*.VCC2.bridging.streamCoder.encoder.mapping = [{stream: "S12", pcp: 5}, \
                                               {stream: "S13", pcp: 5}, \
                                               {stream: "S14", pcp: 5}]

# VCC3 stream identification
*.VCC3.bridging.streamIdentifier.identifier.mapping = [{stream: "S8", packetFilter: expr(has(udp) && udp.destPort == 1008)}, \
                                                       {stream: "S9", packetFilter: expr(has(udp) && udp.destPort == 1009)}, \
                                                       {stream: "S10", packetFilter: expr(has(udp) && udp.destPort == 1010)}]
*.VCC3.bridging.streamCoder.encoder.mapping = [{stream: "S8", pcp: 5}, \
                                               {stream: "S9", pcp: 5}, \
                                               {stream: "S10", pcp: 5}]

#############################################
# Switch Stream Decoder Configuration
#############################################

*.Switch1.bridging.streamCoder.decoder.mapping = [{source: "Lidar", pcp: 5, stream: "S1"}, \
                                                  {source: "Cam1", pcp: 5, stream: "S2"}, \
                                                  {source: "Radar1", pcp: 5, stream: "S3"}, \
                                                  {source: "Cam2", pcp: 5, stream: "S4"}, \
                                                  {source: "Radar2", pcp: 5, stream: "S5"}, \
                                                  {source: "Cam3", pcp: 5, stream: "S6"}, \
                                                  {source: "Cam4", pcp: 5, stream: "S7"}, \
                                                  {source: "VCC3", pcp: 5, stream: "S8"}, \
                                                  {source: "VCC3", pcp: 5, stream: "S9"}, \
                                                  {source: "VCC3", pcp: 5, stream: "S10"}, \
                                                  {source: "Video", pcp: 5, stream: "S11"}, \
                                                  {source: "VCC2", pcp: 5, stream: "S12"}, \
                                                  {source: "VCC2", pcp: 5, stream: "S13"}, \
                                                  {source: "VCC2", pcp: 5, stream: "S14"}, \
                                                  {source: "VCC1", pcp: 5, stream: "S15"}, \
                                                  {source: "VCC1", pcp: 5, stream: "S16"}, \
                                                  {source: "VCC1", pcp: 5, stream: "S17"}]

*.Switch2.bridging.streamCoder.decoder.mapping = [{source: "Lidar", pcp: 5, stream: "S1"}, \
                                                  {source: "Cam1", pcp: 5, stream: "S2"}, \
                                                  {source: "Radar1", pcp: 5, stream: "S3"}, \
                                                  {source: "Cam2", pcp: 5, stream: "S4"}, \
                                                  {source: "Radar2", pcp: 5, stream: "S5"}, \
                                                  {source: "Cam3", pcp: 5, stream: "S6"}, \
                                                  {source: "Cam4", pcp: 5, stream: "S7"}, \
                                                  {source: "VCC3", pcp: 5, stream: "S8"}, \
                                                  {source: "VCC3", pcp: 5, stream: "S9"}, \
                                                  {source: "VCC3", pcp: 5, stream: "S10"}, \
                                                  {source: "Video", pcp: 5, stream: "S11"}, \
                                                  {source: "VCC2", pcp: 5, stream: "S12"}, \
                                                  {source: "VCC2", pcp: 5, stream: "S13"}, \
                                                  {source: "VCC2", pcp: 5, stream: "S14"}, \
                                                  {source: "VCC1", pcp: 5, stream: "S15"}, \
                                                  {source: "VCC1", pcp: 5, stream: "S16"}, \
                                                  {source: "VCC1", pcp: 5, stream: "S17"}]

*.Switch3.bridging.streamCoder.decoder.mapping = [{source: "Lidar", pcp: 5, stream: "S1"}, \
                                                  {source: "Cam1", pcp: 5, stream: "S2"}, \
                                                  {source: "Radar1", pcp: 5, stream: "S3"}, \
                                                  {source: "Cam2", pcp: 5, stream: "S4"}, \
                                                  {source: "Radar2", pcp: 5, stream: "S5"}, \
                                                  {source: "Cam3", pcp: 5, stream: "S6"}, \
                                                  {source: "Cam4", pcp: 5, stream: "S7"}, \
                                                  {source: "VCC3", pcp: 5, stream: "S8"}, \
                                                  {source: "VCC3", pcp: 5, stream: "S9"}, \
                                                  {source: "VCC3", pcp: 5, stream: "S10"}, \
                                                  {source: "Video", pcp: 5, stream: "S11"}, \
                                                  {source: "VCC2", pcp: 5, stream: "S12"}, \
                                                  {source: "VCC2", pcp: 5, stream: "S13"}, \
                                                  {source: "VCC2", pcp: 5, stream: "S14"}, \
                                                  {source: "VCC1", pcp: 5, stream: "S15"}, \
                                                  {source: "VCC1", pcp: 5, stream: "S16"}, \
                                                  {source: "VCC1", pcp: 5, stream: "S17"}]

*.FrontLeftSwitch.bridging.streamCoder.decoder.mapping = [{source: "Lidar", pcp: 5, stream: "S1"}, \
                                                          {source: "Cam1", pcp: 5, stream: "S2"}, \
                                                          {source: "VCC3", pcp: 5, stream: "S8"}, \
                                                          {source: "VCC2", pcp: 5, stream: "S12"}, \
                                                          {source: "VCC1", pcp: 5, stream: "S15"}]

*.FrontRightSwitch.bridging.streamCoder.decoder.mapping = [{source: "Radar1", pcp: 5, stream: "S3"}, \
                                                           {source: "Cam2", pcp: 5, stream: "S4"}, \
                                                           {source: "VCC3", pcp: 5, stream: "S9"}, \
                                                           {source: "Video", pcp: 5, stream: "S11"}, \
                                                           {source: "VCC2", pcp: 5, stream: "S13"}, \
                                                           {source: "VCC1", pcp: 5, stream: "S16"}]

*.RearSwitch.bridging.streamCoder.decoder.mapping = [{source: "VCC3", pcp: 5, stream: "S10"}, \
                                                     {source: "Radar2", pcp: 5, stream: "S5"}, \
                                                     {source: "Cam3", pcp: 5, stream: "S6"}, \
                                                     {source: "Cam4", pcp: 5, stream: "S7"}, \
                                                     {source: "VCC2", pcp: 5, stream: "S14"}, \
                                                     {source: "VCC1", pcp: 5, stream: "S17"}]

*.EndSwitch1.bridging.streamCoder.decoder.mapping = [{source: "Lidar", pcp: 5, stream: "S1"}, \
                                                     {source: "Cam1", pcp: 5, stream: "S2"}]

*.EndSwitch2.bridging.streamCoder.decoder.mapping = [{source: "Radar2", pcp: 5, stream: "S5"}, \
                                                     {source: "Cam3", pcp: 5, stream: "S6"}, \
                                                     {source: "Cam4", pcp: 5, stream: "S7"}]

#############################################
# Switch Stream Encoder Configuration
#############################################

*.Switch*.bridging.streamCoder.encoder.mapping = [{stream: "S1", pcp: 5}, \
                                                  {stream: "S2", pcp: 5}, \
                                                  {stream: "S3", pcp: 5}, \
                                                  {stream: "S4", pcp: 5}, \
                                                  {stream: "S5", pcp: 5}, \
                                                  {stream: "S6", pcp: 5}, \
                                                  {stream: "S7", pcp: 5}, \
                                                  {stream: "S8", pcp: 5}, \
                                                  {stream: "S9", pcp: 5}, \
                                                  {stream: "S10", pcp: 5}, \
                                                  {stream: "S11", pcp: 5}, \
                                                  {stream: "S12", pcp: 5}, \
                                                  {stream: "S13", pcp: 5}, \
                                                  {stream: "S14", pcp: 5}, \
                                                  {stream: "S15", pcp: 5}, \
                                                  {stream: "S16", pcp: 5}, \
                                                  {stream: "S17", pcp: 5}]

*.FrontLeftSwitch.bridging.streamCoder.encoder.mapping = [{stream: "S1", pcp: 5}, \
                                                          {stream: "S2", pcp: 5}, \
                                                          {stream: "S8", pcp: 5}, \
                                                          {stream: "S12", pcp: 5}, \
                                                          {stream: "S15", pcp: 5}]

*.FrontRightSwitch.bridging.streamCoder.encoder.mapping = [{stream: "S3", pcp: 5}, \
                                                           {stream: "S4", pcp: 5}, \
                                                           {stream: "S9", pcp: 5}, \
                                                           {stream: "S11", pcp: 5}, \
                                                           {stream: "S13", pcp: 5}, \
                                                           {stream: "S16", pcp: 5}]

*.RearSwitch.bridging.streamCoder.encoder.mapping = [{stream: "S5", pcp: 5}, \
                                                     {stream: "S6", pcp: 5}, \
                                                     {stream: "S7", pcp: 5}, \